Version 4
SHEET 1 880 748
WIRE -336 -544 -624 -544
WIRE -32 -544 -144 -544
WIRE 96 -544 48 -544
WIRE 208 -448 208 -512
WIRE 336 -448 336 -528
WIRE 464 -448 464 -512
WIRE 608 -448 608 -512
WIRE -192 -336 -192 -368
WIRE 208 -288 208 -368
WIRE 336 -288 336 -368
WIRE 464 -288 464 -368
WIRE 608 -288 608 -368
WIRE -624 -192 -624 -544
WIRE -336 -192 -624 -192
WIRE -32 -192 -144 -192
WIRE 96 -192 96 -544
WIRE 96 -192 48 -192
WIRE -1680 -80 -1680 -112
WIRE -1568 -64 -1568 -112
WIRE -192 0 -192 -16
WIRE 240 0 224 0
WIRE 352 0 320 0
WIRE -1680 80 -1680 0
WIRE -1616 80 -1680 80
WIRE -1568 80 -1568 16
WIRE -1568 80 -1616 80
WIRE -1616 96 -1616 80
WIRE -624 128 -624 -192
WIRE -624 128 -768 128
WIRE -336 128 -624 128
WIRE -48 128 -144 128
WIRE 96 128 96 -192
WIRE 96 128 32 128
WIRE 224 128 224 0
WIRE 224 128 96 128
WIRE 256 128 224 128
WIRE 352 144 352 0
WIRE 352 144 320 144
WIRE 368 144 352 144
WIRE 256 160 224 160
WIRE -768 192 -768 128
WIRE 224 208 224 160
WIRE 224 304 224 288
WIRE -192 320 -192 304
WIRE -624 480 -624 128
WIRE -336 480 -624 480
WIRE -32 480 -144 480
WIRE 96 480 96 128
WIRE 96 480 48 480
WIRE -192 688 -192 656
FLAG 224 304 0
FLAG -768 192 0
FLAG 208 -288 0
FLAG 336 -288 0
FLAG 464 -288 0
FLAG 608 -288 0
FLAG 208 -512 S1
FLAG -336 544 S1
FLAG -336 192 S2
FLAG 336 -528 S2
FLAG -336 -128 S3
FLAG 464 -512 S3
FLAG -336 -480 S4
FLAG 608 -512 S4
FLAG -192 688 0
FLAG -192 320 0
FLAG -192 0 0
FLAG -192 -336 0
FLAG -1616 96 0
FLAG -1680 -112 VSS
FLAG -288 656 VSS
FLAG -288 304 VSS
FLAG -288 -16 VSS
FLAG -288 -368 VSS
FLAG -1568 -112 VDD
FLAG -240 416 VDD
FLAG -240 64 VDD
FLAG -240 -256 VDD
FLAG -240 -608 VDD
FLAG 288 176 VSS
FLAG 288 112 VDD
FLAG 368 144 Vout_e3
SYMBOL OpAmps\\OP07 288 80 R0
SYMATTR InstName U1
SYMBOL voltage 224 192 R0
WINDOW 123 24 124 Left 2
WINDOW 39 0 0 Left 0
WINDOW 3 24 44 Left 2
SYMATTR Value2 AC 1
SYMATTR Value SINE(0 125m 12.1k)
SYMATTR InstName V1
SYMBOL res 48 112 R90
WINDOW 0 0 56 VBottom 2
WINDOW 3 32 56 VTop 2
SYMATTR InstName RG2
SYMATTR Value 16.6k
SYMBOL Switches\\ADGS1612 -240 176 R0
SYMATTR InstName U2
SYMBOL res 64 464 R90
WINDOW 0 0 56 VBottom 2
WINDOW 3 32 56 VTop 2
SYMATTR InstName RG1
SYMATTR Value 30k
SYMBOL Switches\\ADGS1612 -240 528 R0
SYMATTR InstName U3
SYMBOL res 64 -208 R90
WINDOW 0 0 56 VBottom 2
WINDOW 3 32 56 VTop 2
SYMATTR InstName RG3
SYMATTR Value 10k
SYMBOL Switches\\ADGS1612 -240 -144 R0
SYMATTR InstName U4
SYMBOL res 64 -560 R90
WINDOW 0 0 56 VBottom 2
WINDOW 3 32 56 VTop 2
SYMATTR InstName RG4
SYMATTR Value 6.52k
SYMBOL Switches\\ADGS1612 -240 -496 R0
SYMATTR InstName U5
SYMBOL voltage 208 -464 R0
WINDOW 123 0 0 Left 0
WINDOW 39 0 0 Left 0
SYMATTR InstName V2
SYMATTR Value 5
SYMBOL voltage 336 -464 R0
WINDOW 123 0 0 Left 0
WINDOW 39 0 0 Left 0
SYMATTR InstName V3
SYMATTR Value 0
SYMBOL voltage 464 -464 R0
WINDOW 123 0 0 Left 0
WINDOW 39 0 0 Left 0
SYMATTR InstName V4
SYMATTR Value 0
SYMBOL voltage 608 -464 R0
WINDOW 123 0 0 Left 0
WINDOW 39 0 0 Left 0
SYMATTR InstName V5
SYMATTR Value 0
SYMBOL voltage -1680 -96 R0
SYMATTR InstName VSS
SYMATTR Value -5
SYMBOL voltage -1568 -80 R0
SYMATTR InstName VDD
SYMATTR Value 5
SYMBOL res 336 -16 R90
WINDOW 0 0 56 VBottom 2
WINDOW 3 32 56 VTop 2
SYMATTR InstName RF
SYMATTR Value 30k
TEXT -976 -96 Left 2 !.ac dec 100 1 10Meg
TEXT -960 -144 Left 2 ;.op
TEXT -976 -56 Left 2 ;.tran 0 3m 0
TEXT -1040 -224 Left 2 !.FOUR 12.1k 10 V(Vout_e3)
